*2N7000/2N7002/NDS7002A at Temp. Electrical Model
*-------------------------------------------------
*.SUBCKT 2N7000  20 10 30 50
.SUBCKT 2N7000  20 10 30
*20=DRAIN 10=GATE 30=SOURCE 50=VTEMP
* force fet temp to 27 C
* DOES NOT TRACK .temp statement any longer!!
vtemp 50 0 27
Rg 10 11x 1
Rdu 12x 1 1u
M1 2 1 4x 4x DMOS L=1u W=1u
.MODEL DMOS NMOS(VTO=2.9 KP=8.2E-1
+THETA=0.05 VMAX=0.8E5 LEVEL=3)
Cgs 1 5x 27p
Rd 20 4 4E-1 
Dds 5x 4 DDS
.MODEL DDS D(M=4.78E-1 VJ=1.22 CJO=27p)
Dbody 5x 20 DBODY
.MODEL DBODY D(IS=1.94E-12 N=1.201763 RS=0.00355 TT=43.65n)
Ra 4 2 4E-1 
Rs 5x 5 0.5m
Ls 5 30 0.5n
M2 1 8 6 6 INTER
E2 8 6 4 1 2
.MODEL INTER NMOS(VTO=0 KP=10 LEVEL=1)
Cgdmax 7 4 58p
Rcgd 7 4 10meg
Dgd 6 4 DGD
Rdgd 6 4 10meg
.MODEL DGD D(M=4.25E-1 VJ=8.38E-2 CJO=58p)
M3 7 9 1 1 INTER
E3 9 1 4 1 -2
*ZX SECTION
EOUT 4x 6x poly(2) (1x,0) (3x,0) 0 0 0 0 1
FCOPY 0 3x VSENSE 1
RIN 1x 0 1G
VSENSE 6x 5x 0
RREF 3x 0 10m
*TEMP SECTION
ED 101 0 VALUE {V(50,100)}
VAMB 100 0 25
EKP 1x 0 101 0 .82
*VTO TEMP SECTION
EVTO 102 0 101 0 .005
EVT 12x 11x 102 0 1
*DIODE THEMO BREAKDOWN SECTION
EBL VB1 VB2 101 0 .08
VBLK VB2 0 60
D 20 DB1 DBLK
.MODEL DBLK D(IS=1E-14 CJO=.1p RS=.1)
EDB DB1 0 VB1 0 1
.ENDS 2N7000
*2N7000/2N7002/NDS7002A (Rev.B) 8/6/02 **ST

*ZETEX BS250P Spice Model v1.0 Last Revised 19/3/03
    *
.SUBCKT BS250P 3 4 5
*                D G S
M1 3 2 5 5 MBS250
RG 4 2 160
RL 3 5 1.2E8
C1 2 5 47E-12
C2 3 2 10E-12 
D1 3 5 DBS250
*
.MODEL MBS250 PMOS VTO=-3.193 RS=2.041 RD=0.697 IS=1E-15 KP=0.277
+CBD=105E-12 PB=1 LAMBDA=1.2E-2
.MODEL DBS250 D IS=2E-13 RS=0.309
.ENDS BS250P
*
*$
*

